#p b3lyp/6-31+g(d,p) nosymm output=wfn force geom=notest

10k_random_sample_set_5000K05001

0   1
C   0.14000000   2.69900000   0.90100000
O  -0.48800000   3.26000000   1.88500000
N   1.16200000   1.98900000   1.43700000
N   0.59800000   3.30900000  -0.21400000
H   1.07100000   3.98300000   0.43300000
H   1.44900000   3.01000000  -0.22800000
H   1.19500000   1.96000000   2.44600000
H   1.85800000   2.00700000   1.03400000

/gpfs01/scratch/mbdxwym4/urea_631g_sample_set_5000K/10k_random_sample_set_5000K_PARENT/10k_random_sample_set_5000K1/10k_random_sample_set_5000K05001/10k_random_sample_set_5000K05001.wfn
