#P b3lyp/aug-cc-pvtz ! ASE formatted method and basis

Gaussian input prepared by ASE

0 1
N                 1.3061078800      -29.7755007200       -0.3945150600
H                 0.8832294300      -29.0807102800       -1.1419049300
H                 1.4674971300      -29.2228207000        0.4670366900
H                 2.1192190200      -30.1885254900       -0.7543818200
