%nproc=2
%mem=1GB
#p B3LYP/6-31+g(d,p) nosymm output=wfn

AMMONIA0001

0 1
N        1.30610788    -29.77550072     -0.39451506
H        0.88322943    -29.08071028     -1.14190493
H        1.46749713    -29.22282070      0.46703669
H        2.11921902    -30.18852549     -0.75438182

TRAINING_SET/AMMONIA0001/AMMONIA0001.wfn
