%nproc=2
%mem=1GB
#p B3LYP/6-31+g(d,p) CPHF(GRID=FINE) output=wfn INT(GRID=ULTRAFINE) nosymm

FORMAMIDE0001

0 1
C        3.24078329      1.87070735      2.61356454
O        2.63418361      0.90388896      2.99206038
N        2.74798428      3.18075790      2.55472586
H        4.24315370      1.94368994      2.10760323
H        1.91980469      3.61981117      3.08803184
H        3.39639749      3.90997876      2.20587250

TRAINING_SET/FORMAMIDE0001/FORMAMIDE0001.wfn
