%nproc=2
%mem=1GB
#p B3LYP/AUG-cc-pVTZ SCRF=(Solvent=Water) nosymm output=wfn

WATER_MONOMER0001

0 1
O      -0.03348733     -0.46689766     -0.00424905
H      -0.50428226      0.20263196      0.56694849
H       0.53776959      0.26426570     -0.56269944

TRAINING_SET/WATER_MONOMER0001/WATER_MONOMER0001.wfn
