#p b3lyp/6-31+g(d,p) nosymm output=wfn force geom=notest

WATER_MONOMER0000

0   1
O  -0.03348733  -0.46689766  -0.00424905
H  -0.50428226   0.20263196   0.56694849
H   0.53776959   0.26426570  -0.56269944

/gpfs01/scratch/mbdxwym4/water_monomer_example_dir/WATER_MONOMER.pointsdir/WATER_MONOMER0000.pointdir/WATER_MONOMER0000.wfn
