#p B3LYP/6-31+g(d,p) nosymm output=wfn

METHANOL_AMBER1000K0

0 1
C      -0.24600000      0.26000000      0.28200000
H      -1.08600000      0.98400000     -0.02100000
O       0.79600000     -0.02800000     -0.62100000
H      -0.72200000     -0.56900000      0.86900000
H       0.17900000      0.93300000      1.06300000
H       0.64400000     -0.31600000     -1.55600000

METHANOL_AMBER1000K0.wfn
