%nproc=2
%mem=1GB
#p B3LYP/6-31+g(d,p) output=wfn nosymm

PARACETAMOL0001

0 1
C       1.20745000     -0.82175000     -0.09285000
C       1.67645000     -1.62375000      0.96715000
C       1.01345000     -1.60975000      2.23615000
C      -0.13355000     -0.80775000      2.42315000
C      -0.63455000     -0.00075000      1.33015000
C       0.04645000      0.02525000      0.09515000
H       2.66545000     -1.98675000      0.79915000
O       1.54545000     -2.41575000      3.19615000
H      -0.65455000     -0.89275000      3.43415000
H      -1.51555000      0.63425000      1.51115000
H       1.78845000     -0.76375000     -0.99685000
N      -0.30855000      0.78225000     -1.01285000
C      -1.33655000      1.67525000     -1.35485000
H       0.23245000      0.47325000     -1.83185000
O      -2.10555000      2.15725000     -0.53085000
C      -1.42255000      1.95725000     -2.90185000
H      -0.44555000      2.21125000     -3.30085000
H      -2.23655000      2.68525000     -3.16685000
H      -1.68455000      1.11225000     -3.54285000
H       2.30245000     -2.79075000      2.74015000

TRAINING_SET/PARACETAMOL0001/PARACETAMOL0001.wfn