#p b3lyp/6-31+g(d,p) nosymm output=wfn force geom=notest

WATER_MONOMER0003

0   1
O   0.37991563  -0.08942212   0.21600211
H  -0.55435357  -0.19797397   0.43362614
H   0.17443794   0.28739609  -0.64962826

/gpfs01/scratch/mbdxwym4/water_monomer_example_dir/WATER_MONOMER.pointsdir/WATER_MONOMER0003.pointdir/WATER_MONOMER0003.wfn
